data_image0
_chemical_formula_structural       O10Si5
_chemical_formula_sum              "O10 Si5"
_cell_length_a       6.98396
_cell_length_b       6.98405
_cell_length_c       6.47928
_cell_angle_alpha    90.0945
_cell_angle_beta     89.758
_cell_angle_gamma    90.0043

_space_group_name_H-M_alt    "P 1"
_space_group_IT_number       1

loop_
  _space_group_symop_operation_xyz
  'x, y, z'

loop_
  _atom_site_type_symbol
  _atom_site_label
  _atom_site_symmetry_multiplicity
  _atom_site_fract_x
  _atom_site_fract_y
  _atom_site_fract_z
  _atom_site_occupancy
  O   O1        1.0  0.19437  0.99990  0.35843  1.0000
  O   O2        1.0  0.99980  0.19471  0.64117  1.0000
  O   O3        1.0  0.80437  0.99988  0.35987  1.0000
  O   O4        1.0  0.99978  0.80471  0.64053  1.0000
  O   O5        1.0  0.19427  0.19407  0.99956  1.0000
  O   O6        1.0  0.80638  0.19416  0.00118  1.0000
  O   O7        1.0  0.80629  0.80611  0.00043  1.0000
  O   O8        1.0  0.19430  0.80625  0.99881  1.0000
  O   O9        1.0  0.49999  0.00021  0.12025  1.0000
  O   O10       1.0  0.00043  0.50000  0.87976  1.0000
  Si  Si1       1.0  0.26873  0.00015  0.11822  1.0000
  Si  Si2       1.0  0.00035  0.26874  0.88132  1.0000
  Si  Si3       1.0  0.73127  0.00013  0.11979  1.0000
  Si  Si4       1.0  0.00033  0.73127  0.88066  1.0000
  Si  Si5       1.0  0.99933  0.99972  0.50000  1.0000
