# generated using pymatgen
data_CoSi
_symmetry_space_group_name_H-M   P2_13
_cell_length_a   4.38311810
_cell_length_b   4.38311810
_cell_length_c   4.38311810
_cell_angle_alpha   90.00000000
_cell_angle_beta   90.00000000
_cell_angle_gamma   90.00000000
_symmetry_Int_Tables_number   198
_chemical_formula_structural   CoSi
_chemical_formula_sum   'Co4 Si4'
_cell_volume   84.20725642
_cell_formula_units_Z   4
loop_
 _symmetry_equiv_pos_site_id
 _symmetry_equiv_pos_as_xyz
  1  'x, y, z'
  2  '-x+1/2, -y, z+1/2'
  3  'x+1/2, -y+1/2, -z'
  4  '-x, y+1/2, -z+1/2'
  5  'z, x, y'
  6  'z+1/2, -x+1/2, -y'
  7  '-z, x+1/2, -y+1/2'
  8  '-z+1/2, -x, y+1/2'
  9  'y, z, x'
  10  '-y, z+1/2, -x+1/2'
  11  '-y+1/2, -z, x+1/2'
  12  'y+1/2, -z+1/2, -x'
loop_
 _atom_type_symbol
 _atom_type_oxidation_number
  Co4+  4.0
  Si4-  -4.0
loop_
 _atom_site_type_symbol
 _atom_site_label
 _atom_site_symmetry_multiplicity
 _atom_site_fract_x
 _atom_site_fract_y
 _atom_site_fract_z
 _atom_site_occupancy
  Co4+  Co0  4  0.14590329  0.14590329  0.14590329  1
  Si4-  Si1  4  0.15653929  0.34346071  0.65653929  1
